Version 4
SHEET 1 2160 1436
WIRE -32 -32 -288 -32
WIRE 272 -32 -32 -32
WIRE 352 -32 272 -32
WIRE -32 -16 -32 -32
WIRE 272 64 272 -32
WIRE 352 64 352 -32
WIRE -32 80 -32 64
WIRE -32 80 -96 80
WIRE 64 80 -32 80
WIRE -32 96 -32 80
WIRE 64 96 64 80
WIRE 352 176 352 144
WIRE -112 208 -192 208
WIRE 64 208 64 176
WIRE 64 208 -48 208
WIRE 144 208 64 208
WIRE 304 208 224 208
WIRE -192 240 -192 208
WIRE 272 256 272 144
WIRE 304 256 272 256
WIRE 352 304 352 272
WIRE 416 304 352 304
WIRE 544 304 496 304
WIRE 656 304 608 304
WIRE 736 304 656 304
WIRE 880 304 816 304
WIRE 1104 304 880 304
WIRE -192 320 -192 304
WIRE -288 336 -288 -32
WIRE -192 336 -192 320
WIRE 64 336 64 208
WIRE 352 336 352 304
WIRE 656 336 656 304
WIRE 1104 336 1104 304
WIRE 1248 352 1248 304
WIRE -288 448 -288 416
WIRE -192 448 -192 416
WIRE 64 448 64 400
WIRE 352 448 352 416
WIRE 656 448 656 416
WIRE 1104 448 1104 416
WIRE 1248 448 1248 432
WIRE -32 928 -288 928
WIRE 272 928 -32 928
WIRE 352 928 272 928
WIRE -32 944 -32 928
WIRE -32 1040 -32 1024
WIRE 64 1040 -32 1040
WIRE -32 1056 -32 1040
WIRE 64 1056 64 1040
WIRE 352 1136 352 928
WIRE 64 1168 64 1136
WIRE 64 1168 -192 1168
WIRE 304 1168 64 1168
WIRE -192 1200 -192 1168
WIRE 272 1216 272 928
WIRE 304 1216 272 1216
WIRE 352 1264 352 1232
WIRE 448 1264 352 1264
WIRE 544 1264 512 1264
WIRE 576 1264 544 1264
WIRE 704 1264 656 1264
WIRE 720 1264 704 1264
WIRE 944 1264 720 1264
WIRE -192 1280 -192 1264
WIRE -288 1296 -288 928
WIRE -192 1296 -192 1280
WIRE 64 1296 64 1168
WIRE 352 1296 352 1264
WIRE 944 1296 944 1264
WIRE 544 1312 544 1264
WIRE 704 1312 704 1264
WIRE 1088 1312 1088 1264
WIRE -288 1408 -288 1376
WIRE -192 1408 -192 1376
WIRE 64 1408 64 1360
WIRE 352 1408 352 1376
WIRE 544 1408 544 1376
WIRE 704 1408 704 1376
WIRE 944 1408 944 1376
WIRE 1088 1408 1088 1392
FLAG -288 448 0
FLAG -192 448 0
FLAG 352 448 0
FLAG -32 176 0
FLAG 880 304 Vout
FLAG -192 320 Vin
FLAG 1104 448 0
FLAG 1248 448 0
FLAG -160 80 0
FLAG 64 448 0
FLAG -288 1408 0
FLAG -192 1408 0
FLAG 352 1408 0
FLAG -32 1136 0
FLAG 720 1264 Vout_orig
FLAG -192 1280 Vin_orig
FLAG 944 1408 0
FLAG 1088 1408 0
FLAG 64 1408 0
FLAG 704 1408 0
FLAG 544 1408 0
FLAG 656 448 0
SYMBOL BF998 304 176 R0
SYMATTR InstName U1
SYMBOL voltage -288 320 R0
WINDOW 123 0 0 Left 0
WINDOW 39 0 0 Left 0
SYMATTR InstName V1
SYMATTR Value 5
SYMBOL voltage -192 320 R0
WINDOW 123 24 124 Left 2
WINDOW 39 0 0 Left 0
SYMATTR Value2 AC 1
SYMATTR InstName V2
SYMATTR Value ""
SYMBOL cap -48 192 R90
WINDOW 0 0 32 VBottom 2
WINDOW 3 32 32 VTop 2
SYMATTR InstName C1
SYMATTR Value {Cin}
SYMBOL res 48 80 R0
SYMATTR InstName R1
SYMATTR Value 1Meg
SYMBOL res 336 320 R0
SYMATTR InstName R2
SYMATTR Value 75
SYMBOL cap 608 288 R90
WINDOW 0 0 32 VBottom 2
WINDOW 3 32 32 VTop 2
SYMATTR InstName C2
SYMATTR Value 100n
SYMBOL res -48 -32 R0
SYMATTR InstName R3
SYMATTR Value 5k6
SYMBOL res -48 80 R0
SYMATTR InstName R4
SYMATTR Value 4k7
SYMBOL ind2 832 288 R90
WINDOW 0 4 56 VBottom 2
WINDOW 3 32 56 VTop 2
SYMATTR InstName L1
SYMATTR Value 4.7n
SYMATTR Type ind
SYMBOL res 1088 320 R0
SYMATTR InstName R5
SYMATTR Value 50
SYMBOL voltage 1248 336 R0
WINDOW 123 24 124 Left 2
WINDOW 39 0 0 Left 0
SYMATTR Value2 AC 1
SYMATTR InstName V3
SYMATTR Value ""
SYMBOL cap -96 64 R90
WINDOW 0 0 32 VBottom 2
WINDOW 3 32 32 VTop 2
SYMATTR InstName C5
SYMATTR Value 100n
SYMBOL res 336 48 R0
SYMATTR InstName R6
SYMATTR Value 10
SYMBOL res 256 48 R0
SYMATTR InstName R7
SYMATTR Value 39
SYMBOL res 512 288 R90
WINDOW 0 0 56 VBottom 2
WINDOW 3 32 56 VTop 2
SYMATTR InstName R8
SYMATTR Value 1p
SYMBOL cap -208 240 R0
SYMATTR InstName C6
SYMATTR Value 3p
SYMBOL cap 48 336 R0
SYMATTR InstName C7
SYMATTR Value 1p
SYMBOL res 240 192 R90
WINDOW 0 0 56 VBottom 2
WINDOW 3 32 56 VTop 2
SYMATTR InstName R9
SYMATTR Value 39
SYMBOL BF998 304 1136 R0
SYMATTR InstName U2
SYMBOL voltage -288 1280 R0
WINDOW 123 0 0 Left 0
WINDOW 39 0 0 Left 0
SYMATTR InstName V4
SYMATTR Value 4.1
SYMBOL voltage -192 1280 R0
WINDOW 123 24 124 Left 2
WINDOW 39 0 0 Left 0
SYMATTR Value2 AC 1
SYMATTR InstName V5
SYMATTR Value ""
SYMBOL res 48 1040 R0
SYMATTR InstName R10
SYMATTR Value 1Meg
SYMBOL res 336 1280 R0
SYMATTR InstName R11
SYMATTR Value 47
SYMBOL cap 512 1248 R90
WINDOW 0 0 32 VBottom 2
WINDOW 3 32 32 VTop 2
SYMATTR InstName C4
SYMATTR Value 100n
SYMBOL res -48 928 R0
SYMATTR InstName R12
SYMATTR Value 5k6
SYMBOL res -48 1040 R0
SYMATTR InstName R13
SYMATTR Value 4k7
SYMBOL ind2 672 1248 R90
WINDOW 0 4 56 VBottom 2
WINDOW 3 32 56 VTop 2
SYMATTR InstName L2
SYMATTR Value 10n
SYMATTR Type ind
SYMBOL res 928 1280 R0
SYMATTR InstName R14
SYMATTR Value 50
SYMBOL voltage 1088 1296 R0
WINDOW 123 24 124 Left 2
WINDOW 39 0 0 Left 0
SYMATTR Value2 AC 1
SYMATTR InstName V6
SYMATTR Value ""
SYMBOL cap -208 1200 R0
SYMATTR InstName C9
SYMATTR Value 2p7
SYMBOL cap 48 1296 R0
SYMATTR InstName C10
SYMATTR Value 1p
SYMBOL cap 528 1312 R0
SYMATTR InstName C11
SYMATTR Value 2p2
SYMBOL cap 688 1312 R0
SYMATTR InstName C12
SYMATTR Value 2p2
SYMBOL res 640 320 R0
SYMATTR InstName R15
SYMATTR Value 100k
TEXT 872 -64 Left 2 !;op 200m startup
TEXT 872 -96 Left 2 !.ac dec 801 30k 4G
TEXT -232 576 Left 2 !.step param Cin 1.5p 3p 0.2p
TEXT 872 56 Left 2 !.options plotwinsize=0 numdgt=15
TEXT 872 0 Left 2 ;Options for higher accuracy simulation\nSet solver from Normal to Alternate! (There is no SPICE command for that, at least until LTSpice 24.1)
TEXT 872 -120 Left 2 ;Simulation settings
TEXT 8 480 Left 2 ;Stray capacitance of PCB\nVery rough estimate
TEXT -232 544 Left 2 ;Variable input capacitor for coarse gain tuning
TEXT 168 -120 Left 2 ;These resistors increase stability of the amplifier.\nOtherwise, the transistor can oscillate with\ncapacitive high impedance on input.
TEXT -232 608 Left 2 !;param Cin=2.25p
TEXT -288 -120 Left 2 ;This divider shall be done by\na multi-turn trimmer to allow small\ncorrections of gain.
TEXT 408 176 Left 2 ;The transistor shall run at <6 V to prevent\ndamage in case of total reflection of short\noutput pulse on open end of cable.
TEXT 360 496 Left 2 ;R2 has to be >50 Ohm to match the circuit\nto 50 Ohm system due to output impedance\nof the transistor.
TEXT -736 104 Left 2 ;Expected noise voltage on the 1M\nresistor with 1 GHz bandwidth is\nabout 4 mV, thus about 1.2 mV\non output.
TEXT -288 -536 Left 2 ;Note that this simulation does not count with realistic parasitic capacitances!\nManufacturing variance of the tranistor is not simulated!\nAll of the stabilising resistors as well as input capacitor need to be fine-tuned in reality.\nEach device may be so different so fine-tuning may be needed for each piece.\nSimulation results above 1 GHz are likely to be very unrealistic.
TEXT -288 720 Left 2 ;Original non-RF-stabilised design\n>0.8 dB peaking before fall-off\n2 dB flatness to approx. 1.4 GHz\n6 dB flatness to approx. 1.87 GHz\nFirst resonant notch at 3.1 GHz\nResonant peak at 3.5 GHz\nRoll-off approx. 9.5 dB / octave
TEXT -288 -376 Left 2 ;Improved RF design\n<0.1 dB peaking before fall-off\n2 dB flatness to approx. 1.68 GHz\n6 dB flatness to approx. 3.3 GHz\nResonant notch at 5.9 GHz\nResonant peak at 15 GHz\nRoll-of approx. 3.6 dB / octave
TEXT 360 592 Left 2 ;High quality RF capacitor C2 is required, recommended\nis Kyocera/AVX 531Z104KT16T for example.
