Version 4
SHEET 1 1328 680
WIRE 64 -32 -192 -32
WIRE 272 -32 64 -32
WIRE 352 -32 272 -32
WIRE 64 -16 64 -32
WIRE 272 64 272 -32
WIRE 352 64 352 -32
WIRE 64 80 64 64
WIRE 64 80 0 80
WIRE 160 80 64 80
WIRE 64 96 64 80
WIRE 160 96 160 80
WIRE 352 176 352 144
WIRE -16 208 -48 208
WIRE 160 208 160 176
WIRE 160 208 48 208
WIRE 304 208 160 208
WIRE 272 256 272 144
WIRE 304 256 272 256
WIRE 352 304 352 272
WIRE 416 304 352 304
WIRE 544 304 496 304
WIRE 656 304 608 304
WIRE 736 304 656 304
WIRE 880 304 816 304
WIRE 1248 304 880 304
WIRE -192 336 -192 -32
WIRE -48 336 -48 208
WIRE 352 336 352 304
WIRE 656 352 656 304
WIRE 880 352 880 304
WIRE 1248 352 1248 304
WIRE -192 448 -192 416
WIRE -48 448 -48 416
WIRE 352 448 352 416
WIRE 656 448 656 416
WIRE 880 448 880 416
WIRE 1104 448 1104 416
WIRE 1248 448 1248 432
FLAG -192 448 0
FLAG -48 448 0
FLAG 352 448 0
FLAG 64 176 0
FLAG 656 448 0
FLAG 880 448 0
FLAG 880 304 Vout
FLAG -48 208 Vin
FLAG 1104 448 0
FLAG 1248 448 0
FLAG -64 80 0
SYMBOL BF998 304 176 R0
SYMATTR InstName U1
SYMBOL voltage -192 320 R0
WINDOW 123 0 0 Left 0
WINDOW 39 0 0 Left 0
SYMATTR InstName V1
SYMATTR Value 4
SYMBOL voltage -48 320 R0
WINDOW 123 24 124 Left 2
WINDOW 39 0 0 Left 0
SYMATTR InstName V2
SYMATTR Value ""
SYMATTR Value2 AC 0
SYMBOL cap 48 192 R90
WINDOW 0 0 32 VBottom 2
WINDOW 3 32 32 VTop 2
SYMATTR InstName C1
SYMATTR Value {1p}
SYMBOL res 144 80 R0
SYMATTR InstName R1
SYMATTR Value 1Meg
SYMBOL res 336 320 R0
SYMATTR InstName R2
SYMATTR Value 75
SYMBOL cap 608 288 R90
WINDOW 0 0 32 VBottom 2
WINDOW 3 32 32 VTop 2
SYMATTR InstName C2
SYMATTR Value 100n
SYMBOL res 48 -32 R0
SYMATTR InstName R3
SYMATTR Value 5k6
SYMBOL res 48 80 R0
SYMATTR InstName R4
SYMATTR Value 4k7
SYMBOL cap 640 352 R0
SYMATTR InstName C3
SYMATTR Value 2p2
SYMBOL ind2 832 288 R90
WINDOW 0 4 56 VBottom 2
WINDOW 3 32 56 VTop 2
SYMATTR InstName L1
SYMATTR Value 10n
SYMATTR Type ind
SYMBOL cap 864 352 R0
SYMATTR InstName C4
SYMATTR Value 2p2
SYMBOL res 1088 320 R0
SYMATTR InstName R5
SYMATTR Value 50
SYMBOL voltage 1248 336 R0
WINDOW 123 24 124 Left 2
WINDOW 39 0 0 Left 0
SYMATTR InstName V3
SYMATTR Value ""
SYMATTR Value2 AC 1
SYMBOL cap 0 64 R90
WINDOW 0 0 32 VBottom 2
WINDOW 3 32 32 VTop 2
SYMATTR InstName C5
SYMATTR Value 100n
SYMBOL res 336 48 R0
SYMATTR InstName R6
SYMATTR Value 33
SYMBOL res 256 48 R0
SYMATTR InstName R7
SYMATTR Value 56
SYMBOL res 512 288 R90
WINDOW 0 0 56 VBottom 2
WINDOW 3 32 56 VTop 2
SYMATTR InstName R8
SYMATTR Value 1p
TEXT -440 120 Left 2 !;op 200m startup
TEXT -448 72 Left 2 !.ac dec 801 10k 10G
TEXT 328 -72 Left 2 !;step param Cin 1p 10p 1p
